ieee_data/IEEE3.dat
 01/03/95 HGK                  100.0  IEEE 3 Bus Test Case
BUS DATA FOLLOWS                            3 ITEMS
   1 Bus 1     HV  1  1  3 1.060    0.0      0.0      0.0    232.4   -16.9     0.0  1.060     0.0     0.0   0.0    0.0        0
   2 Bus 2     HV  1  1  2 1.045  -4.98     21.7     12.7     40.0    42.4     0.0  1.045    50.0   -40.0   0.0    0.0        0
   3 Bus 3     HV  1  1  0 1.010 -12.72     94.2     19.0      0.0    23.4     0.0  1.010    40.0     0.0   0.0    0.0        0
-999 
BRANCH DATA FOLLOWS                         3 ITEMS
   1    2  1  1 1 0  0.01938   0.05917     0.0528     0     0     0    0 0  0.0       0.0 0.0    0.0     0.0    0.0   0.0
   1    3  1  1 1 0  0.05403   0.22304     0.0492     0     0     0    0 0  0.0       0.0 0.0    0.0     0.0    0.0   0.0
   2    3  1  1 1 0  0.04699   0.19797     0.0438     0     0     0    0 0  0.0       0.0 0.0    0.0     0.0    0.0   0.0
-999
LOSS ZONES FOLLOWS                     1 ITEMS
  1 IEEE 3 BUS
-99
INTERCHANGE DATA FOLLOWS                 1 ITEMS
 1    2 Bus 2     HV    0.0  999.99  IEEE3  IEEE 3 Bus Test Case
-9
TIE LINES FOLLOWS                     0 ITEMS
-999
END OF DATA
